<routes>
        <vType id="typeWE" accel="0.8" decel="4.5" sigma="0.5" length="5" minGap="2.5" maxSpeed="16.67" guiShape="passenger"/>
        <vType id="typeNS" accel="0.8" decel="4.5" sigma="0.5" length="7" minGap="3" maxSpeed="25" guiShape="bus"/>

        <route id="right" edges="51o 1i 2o 52i" />
        <route id="left" edges="52o 2i 1o 51i" />
        <route id="down" edges="54o 4i 3o 53i" />
    <vehicle id="left_0" type="typeWE" route="left" depart="0" />
    <vehicle id="left_1" type="typeWE" route="left" depart="2" />
    <vehicle id="right_2" type="typeWE" route="right" depart="3" />
    <vehicle id="right_3" type="typeWE" route="right" depart="4" />
    <vehicle id="left_4" type="typeWE" route="left" depart="6" />
    <vehicle id="right_5" type="typeWE" route="right" depart="9" />
    <vehicle id="left_6" type="typeWE" route="left" depart="22" />
    <vehicle id="left_7" type="typeWE" route="left" depart="31" />
    <vehicle id="left_8" type="typeWE" route="left" depart="33" />
    <vehicle id="left_9" type="typeWE" route="left" depart="41" />
    <vehicle id="right_10" type="typeWE" route="right" depart="42" />
    <vehicle id="left_11" type="typeWE" route="left" depart="45" />
    <vehicle id="left_12" type="typeWE" route="left" depart="53" />
    <vehicle id="right_13" type="typeWE" route="right" depart="55" />
    <vehicle id="right_14" type="typeWE" route="right" depart="61" />
    <vehicle id="right_15" type="typeWE" route="right" depart="69" />
    <vehicle id="right_16" type="typeWE" route="right" depart="84" />
    <vehicle id="left_17" type="typeWE" route="left" depart="85" />
    <vehicle id="down_18" type="typeNS" route="down" depart="89" color="1,0,0"/>
    <vehicle id="down_19" type="typeNS" route="down" depart="96" color="1,0,0"/>
    <vehicle id="right_20" type="typeWE" route="right" depart="99" />
    <vehicle id="left_21" type="typeWE" route="left" depart="99" />
    <vehicle id="right_22" type="typeWE" route="right" depart="108" />
    <vehicle id="right_23" type="typeWE" route="right" depart="114" />
    <vehicle id="down_24" type="typeNS" route="down" depart="122" color="1,0,0"/>
    <vehicle id="right_25" type="typeWE" route="right" depart="125" />
    <vehicle id="left_26" type="typeWE" route="left" depart="131" />
    <vehicle id="left_27" type="typeWE" route="left" depart="135" />
    <vehicle id="left_28" type="typeWE" route="left" depart="138" />
    <vehicle id="left_29" type="typeWE" route="left" depart="142" />
    <vehicle id="right_30" type="typeWE" route="right" depart="145" />
    <vehicle id="left_31" type="typeWE" route="left" depart="153" />
    <vehicle id="left_32" type="typeWE" route="left" depart="156" />
    <vehicle id="left_33" type="typeWE" route="left" depart="160" />
    <vehicle id="left_34" type="typeWE" route="left" depart="164" />
    <vehicle id="right_35" type="typeWE" route="right" depart="167" />
    <vehicle id="right_36" type="typeWE" route="right" depart="168" />
    <vehicle id="left_37" type="typeWE" route="left" depart="169" />
    <vehicle id="left_38" type="typeWE" route="left" depart="172" />
    <vehicle id="down_39" type="typeNS" route="down" depart="172" color="1,0,0"/>
    <vehicle id="right_40" type="typeWE" route="right" depart="176" />
    <vehicle id="right_41" type="typeWE" route="right" depart="181" />
    <vehicle id="right_42" type="typeWE" route="right" depart="183" />
    <vehicle id="left_43" type="typeWE" route="left" depart="194" />
    <vehicle id="left_44" type="typeWE" route="left" depart="196" />
    <vehicle id="left_45" type="typeWE" route="left" depart="199" />
    <vehicle id="right_46" type="typeWE" route="right" depart="200" />
    <vehicle id="left_47" type="typeWE" route="left" depart="212" />
    <vehicle id="right_48" type="typeWE" route="right" depart="217" />
    <vehicle id="left_49" type="typeWE" route="left" depart="219" />
    <vehicle id="right_50" type="typeWE" route="right" depart="228" />
    <vehicle id="left_51" type="typeWE" route="left" depart="234" />
    <vehicle id="left_52" type="typeWE" route="left" depart="238" />
    <vehicle id="right_53" type="typeWE" route="right" depart="240" />
    <vehicle id="left_54" type="typeWE" route="left" depart="272" />
    <vehicle id="left_55" type="typeWE" route="left" depart="275" />
    <vehicle id="right_56" type="typeWE" route="right" depart="284" />
    <vehicle id="right_57" type="typeWE" route="right" depart="286" />
    <vehicle id="right_58" type="typeWE" route="right" depart="288" />
    <vehicle id="right_59" type="typeWE" route="right" depart="291" />
    <vehicle id="right_60" type="typeWE" route="right" depart="294" />
    <vehicle id="down_61" type="typeNS" route="down" depart="318" color="1,0,0"/>
    <vehicle id="right_62" type="typeWE" route="right" depart="322" />
    <vehicle id="down_63" type="typeNS" route="down" depart="331" color="1,0,0"/>
    <vehicle id="down_64" type="typeNS" route="down" depart="337" color="1,0,0"/>
    <vehicle id="left_65" type="typeWE" route="left" depart="339" />
    <vehicle id="right_66" type="typeWE" route="right" depart="342" />
    <vehicle id="left_67" type="typeWE" route="left" depart="344" />
    <vehicle id="down_68" type="typeNS" route="down" depart="344" color="1,0,0"/>
    <vehicle id="left_69" type="typeWE" route="left" depart="346" />
    <vehicle id="right_70" type="typeWE" route="right" depart="354" />
    <vehicle id="right_71" type="typeWE" route="right" depart="375" />
    <vehicle id="down_72" type="typeNS" route="down" depart="377" color="1,0,0"/>
    <vehicle id="down_73" type="typeNS" route="down" depart="379" color="1,0,0"/>
    <vehicle id="right_74" type="typeWE" route="right" depart="383" />
    <vehicle id="left_75" type="typeWE" route="left" depart="388" />
    <vehicle id="left_76" type="typeWE" route="left" depart="389" />
    <vehicle id="left_77" type="typeWE" route="left" depart="391" />
    <vehicle id="right_78" type="typeWE" route="right" depart="394" />
    <vehicle id="right_79" type="typeWE" route="right" depart="395" />
    <vehicle id="down_80" type="typeNS" route="down" depart="397" color="1,0,0"/>
    <vehicle id="right_81" type="typeWE" route="right" depart="412" />
    <vehicle id="left_82" type="typeWE" route="left" depart="413" />
    <vehicle id="left_83" type="typeWE" route="left" depart="415" />
    <vehicle id="left_84" type="typeWE" route="left" depart="420" />
    <vehicle id="right_85" type="typeWE" route="right" depart="427" />
    <vehicle id="down_86" type="typeNS" route="down" depart="457" color="1,0,0"/>
    <vehicle id="right_87" type="typeWE" route="right" depart="458" />
    <vehicle id="down_88" type="typeNS" route="down" depart="459" color="1,0,0"/>
    <vehicle id="down_89" type="typeNS" route="down" depart="463" color="1,0,0"/>
    <vehicle id="right_90" type="typeWE" route="right" depart="464" />
    <vehicle id="right_91" type="typeWE" route="right" depart="467" />
    <vehicle id="left_92" type="typeWE" route="left" depart="469" />
    <vehicle id="left_93" type="typeWE" route="left" depart="472" />
    <vehicle id="right_94" type="typeWE" route="right" depart="473" />
    <vehicle id="left_95" type="typeWE" route="left" depart="476" />
    <vehicle id="right_96" type="typeWE" route="right" depart="479" />
    <vehicle id="right_97" type="typeWE" route="right" depart="482" />
    <vehicle id="left_98" type="typeWE" route="left" depart="483" />
    <vehicle id="right_99" type="typeWE" route="right" depart="484" />
    <vehicle id="left_100" type="typeWE" route="left" depart="492" />
    <vehicle id="right_101" type="typeWE" route="right" depart="494" />
    <vehicle id="left_102" type="typeWE" route="left" depart="496" />
    <vehicle id="right_103" type="typeWE" route="right" depart="502" />
    <vehicle id="left_104" type="typeWE" route="left" depart="514" />
    <vehicle id="down_105" type="typeNS" route="down" depart="518" color="1,0,0"/>
    <vehicle id="right_106" type="typeWE" route="right" depart="523" />
    <vehicle id="left_107" type="typeWE" route="left" depart="527" />
    <vehicle id="right_108" type="typeWE" route="right" depart="536" />
    <vehicle id="left_109" type="typeWE" route="left" depart="536" />
    <vehicle id="left_110" type="typeWE" route="left" depart="541" />
    <vehicle id="left_111" type="typeWE" route="left" depart="552" />
    <vehicle id="left_112" type="typeWE" route="left" depart="554" />
    <vehicle id="right_113" type="typeWE" route="right" depart="565" />
    <vehicle id="down_114" type="typeNS" route="down" depart="573" color="1,0,0"/>
    <vehicle id="left_115" type="typeWE" route="left" depart="578" />
    <vehicle id="left_116" type="typeWE" route="left" depart="579" />
    <vehicle id="left_117" type="typeWE" route="left" depart="582" />
    <vehicle id="left_118" type="typeWE" route="left" depart="602" />
    <vehicle id="left_119" type="typeWE" route="left" depart="606" />
    <vehicle id="right_120" type="typeWE" route="right" depart="612" />
    <vehicle id="down_121" type="typeNS" route="down" depart="624" color="1,0,0"/>
    <vehicle id="left_122" type="typeWE" route="left" depart="634" />
    <vehicle id="left_123" type="typeWE" route="left" depart="635" />
    <vehicle id="right_124" type="typeWE" route="right" depart="636" />
    <vehicle id="left_125" type="typeWE" route="left" depart="641" />
    <vehicle id="right_126" type="typeWE" route="right" depart="644" />
    <vehicle id="left_127" type="typeWE" route="left" depart="646" />
    <vehicle id="down_128" type="typeNS" route="down" depart="653" color="1,0,0"/>
    <vehicle id="right_129" type="typeWE" route="right" depart="654" />
    <vehicle id="left_130" type="typeWE" route="left" depart="659" />
    <vehicle id="left_131" type="typeWE" route="left" depart="660" />
    <vehicle id="left_132" type="typeWE" route="left" depart="661" />
    <vehicle id="left_133" type="typeWE" route="left" depart="663" />
    <vehicle id="right_134" type="typeWE" route="right" depart="668" />
    <vehicle id="left_135" type="typeWE" route="left" depart="683" />
    <vehicle id="right_136" type="typeWE" route="right" depart="701" />
    <vehicle id="right_137" type="typeWE" route="right" depart="704" />
    <vehicle id="down_138" type="typeNS" route="down" depart="706" color="1,0,0"/>
    <vehicle id="left_139" type="typeWE" route="left" depart="707" />
    <vehicle id="down_140" type="typeNS" route="down" depart="708" color="1,0,0"/>
    <vehicle id="left_141" type="typeWE" route="left" depart="717" />
    <vehicle id="down_142" type="typeNS" route="down" depart="717" color="1,0,0"/>
    <vehicle id="right_143" type="typeWE" route="right" depart="720" />
    <vehicle id="left_144" type="typeWE" route="left" depart="722" />
    <vehicle id="right_145" type="typeWE" route="right" depart="724" />
    <vehicle id="right_146" type="typeWE" route="right" depart="731" />
    <vehicle id="down_147" type="typeNS" route="down" depart="733" color="1,0,0"/>
    <vehicle id="right_148" type="typeWE" route="right" depart="738" />
    <vehicle id="left_149" type="typeWE" route="left" depart="740" />
    <vehicle id="left_150" type="typeWE" route="left" depart="743" />
    <vehicle id="right_151" type="typeWE" route="right" depart="744" />
    <vehicle id="right_152" type="typeWE" route="right" depart="746" />
    <vehicle id="left_153" type="typeWE" route="left" depart="749" />
    <vehicle id="left_154" type="typeWE" route="left" depart="768" />
    <vehicle id="left_155" type="typeWE" route="left" depart="774" />
    <vehicle id="down_156" type="typeNS" route="down" depart="776" color="1,0,0"/>
    <vehicle id="down_157" type="typeNS" route="down" depart="780" color="1,0,0"/>
    <vehicle id="down_158" type="typeNS" route="down" depart="791" color="1,0,0"/>
    <vehicle id="left_159" type="typeWE" route="left" depart="801" />
    <vehicle id="right_160" type="typeWE" route="right" depart="808" />
    <vehicle id="down_161" type="typeNS" route="down" depart="808" color="1,0,0"/>
    <vehicle id="right_162" type="typeWE" route="right" depart="812" />
    <vehicle id="left_163" type="typeWE" route="left" depart="812" />
    <vehicle id="right_164" type="typeWE" route="right" depart="826" />
    <vehicle id="down_165" type="typeNS" route="down" depart="838" color="1,0,0"/>
    <vehicle id="right_166" type="typeWE" route="right" depart="841" />
    <vehicle id="left_167" type="typeWE" route="left" depart="845" />
    <vehicle id="down_168" type="typeNS" route="down" depart="847" color="1,0,0"/>
    <vehicle id="left_169" type="typeWE" route="left" depart="854" />
    <vehicle id="right_170" type="typeWE" route="right" depart="856" />
    <vehicle id="right_171" type="typeWE" route="right" depart="858" />
    <vehicle id="left_172" type="typeWE" route="left" depart="862" />
    <vehicle id="left_173" type="typeWE" route="left" depart="865" />
    <vehicle id="left_174" type="typeWE" route="left" depart="868" />
    <vehicle id="right_175" type="typeWE" route="right" depart="879" />
    <vehicle id="left_176" type="typeWE" route="left" depart="879" />
    <vehicle id="right_177" type="typeWE" route="right" depart="880" />
    <vehicle id="left_178" type="typeWE" route="left" depart="880" />
    <vehicle id="right_179" type="typeWE" route="right" depart="887" />
    <vehicle id="left_180" type="typeWE" route="left" depart="888" />
    <vehicle id="down_181" type="typeNS" route="down" depart="895" color="1,0,0"/>
</routes>
